   13
 
 C     0.000000     0.000000     0.000000
 C     0.000000     0.000000     1.400000
 C     1.212000     0.000000     2.100000
 C     2.425000     0.000000     1.400000
 C     2.425000     0.000000     0.000000
 C     1.212000     0.000000    -0.700000
 H    -0.943000     0.000000     1.944000
 H     1.212000     0.000000     3.189000
 H     3.368000     0.000000     1.944000
 H     3.368000     0.000000    -0.545000
 H     1.212000     0.000000    -1.789000
 O    -1.224000    -0.021000    -0.679000
 H    -1.067000    -0.018000    -1.615000
